/*-------------------------------------------------------------------------------------------------------------*\
|                                                                                                               | 
|                                                                                                               | 
|                                                                                                               | 
|                                                                                                               | 
\*-------------------------------------------------------------------------------------------------------------*/



FoamFile
{
	version 2.0;
	format binary;
	class dictionary;
	location "";
	object fvOptions;
}
/*---------------------------------------------------------------------------*/
/*---------------------------------------------------------------------------*/

Velocity_Limiter
{
	type limitVelocity;
	active yes;
	selectionMode all;
	max 5;
}
