/*-------------------------------------------------------------------------------------------------------------*\
|                                                                                                               | 
|                                                                                                               | 
|                                                                                                               | 
|                                                                                                               | 
\*-------------------------------------------------------------------------------------------------------------*/



FoamFile
{
	version 2.0;
	format binary;
	class dictionary;
	location "";
	object transportProperties;
}
/*---------------------------------------------------------------------------*/
/*---------------------------------------------------------------------------*/


transportModel  Newtonian;

nu              nu [0 2 -1 0 0 0 0] 0.00000377358; //blood kinmtic viscoity approxmation

//blodd Density 1060 kg/m3,
//transportModel  Newtonian;
//nu              nu [0 2 -1 0 0 0 0] 0.00000377358; //blood kinmtic viscoity approxmation
//Data ref from: 
//Newtonian and non-Newtonian CFD Models of Intracranial Aneurysm: A Review

CrossPowerLawCoeffs
{
    nu0      [ 0 2 -1 0 0 0 0 ] 1.188679245283019e-4; //equal to 0.126 pa.s
    nuInf    [ 0 2 -1 0 0 0 0 ] 3.30188679245283e-6; //equal to 0.0036 Pa.s
    m        [ 0 0  1 0 0 0 0 ] 8.2;
    n        [ 0 0  0 0 0 0 0 ] 0.64;
}
