/*-------------------------------------------------------------------------------------------------------------*\
|BIO-CFD                                                                                                        | 
|                                                                                                               | 
|                                                                                                               | 
|                                                                                                               | 
\*-------------------------------------------------------------------------------------------------------------*/



FoamFile
{
	version 2.0;
	format binary;
	class volScalarField;
	location "";
	object k;
}
/*---------------------------------------------------------------------------*/
/*---------------------------------------------------------------------------*/


dimensions [0 2 -2 0 0 0 0];

internalField uniform 0.;


boundaryField
{
	wall
	{
		type kqRWallFunction;
		value uniform 0.;
	}

	inlet
	{
		type fixedValue;
		value uniform 0.;
	}

	"outlet.*"
	{
		type zeroGradient;
	}



}
