/*-------------------------------------------------------------------------------------------------------------*\
|BIO-CFD                                                                                                        | 
|                                                                                                               | 
|                                                                                                               | 
|                                                                                                               | 
\*-------------------------------------------------------------------------------------------------------------*/



FoamFile
{
	version 2.0;
	format binary;
	class volScalarField;
	location "";
	object omega;
}
/*---------------------------------------------------------------------------*/
/*---------------------------------------------------------------------------*/


dimensions [0 0 -1 0 0 0 0];

internalField uniform 0.01;


boundaryField
{
	wall
	{
		type omegaWallFunction;
		value uniform 0.01;
	}

	inlet
	{
		type fixedValue;
		value uniform 0.01;
	}

	"outlet.*"
	{
		type inletOutlet;
		value uniform 8.938;
		inletValue uniform 8.938;
	}
}
