/*-------------------------------------------------------------------------------------------------------------*\
|BIO-CFD                                                                                                        | 
|                                                                                                               | 
|                                                                                                               | 
|                                                                                                               | 
\*-------------------------------------------------------------------------------------------------------------*/
FoamFile
{
    version     2.0;
    format      ascii;
    class       volScalarField;
    object      s;
}
// * * * * * * * * * * * * * * * * * * * * * * * * * * * * * * * * * * * * * //

dimensions      [0 0 0 0 0 0 0];

internalField   uniform 0;

boundaryField
{
    inlet
    {
        type            fixedValue;
        value           uniform 1;
    }

	"outlet.*"
    {
        type            zeroGradient;

    }

    wall
    {
        type            zeroGradient;
    }
}

// ************************************************************************* //
